* DIODE MODELS

.model my_zen zener(v_breakdown=6.0 i_breakdown=0.02
+r_breakdown=1.0 i_rev=1e-6 i_sat=1e-12)

.model LED D(IS=1a RS=3.3 N=1.8)

.model 1N4148 D(IS=35p RS=64m N=1.24 TT=5.0n CJO=4.0p M=0.285 VJ=0.6 BV=75)

.model 1N4004 D (IS=18.8n RS=0 BV=400 IBV=5.00u CJO=30p M=0.333 N=2)

